Circuit: * C:\Users\Owner\Dropbox\Eagle\Peachy Pro\3V3 100mA current drive sim.asc

Direct Newton iteration for .op point succeeded.
Ignoring empty pin current: Ix(u1:1)
Ignoring empty pin current: Ix(u1:2)
Ignoring empty pin current: Ix(u2:1)
Ignoring empty pin current: Ix(u2:2)
Ignoring empty pin current: Ix(u1:1)
Ignoring empty pin current: Ix(u1:2)
Ignoring empty pin current: Ix(u2:1)
Ignoring empty pin current: Ix(u2:2)

Date: Wed Jul 08 10:29:44 2015
Total elapsed time: 3.022 seconds.

tnom = 27
temp = 27
method = modified trap
totiter = 184901
traniter = 184898
tranpoints = 91948
accept = 81040
rejected = 10908
matrix size = 16
fillins = 8
solver = Normal
Matrix Compiler1: 774 bytes object code size  0.7/0.4/[0.1]
Matrix Compiler2: 1.13 KB object code size  0.4/0.5/[0.3]


