Circuit: * C:\Users\Owner\Dropbox\Eagle\Peachy Pro\Laser driver shutdown.asc

Direct Newton iteration for .op point succeeded.
Ignoring empty pin current: Ix(u1:1)
Ignoring empty pin current: Ix(u1:2)
Ignoring empty pin current: Ix(u1:1)
Ignoring empty pin current: Ix(u1:2)

Date: Fri Jul 10 15:43:53 2015
Total elapsed time: 6.873 seconds.

tnom = 27
temp = 27
method = modified trap
totiter = 353000
traniter = 352973
tranpoints = 150653
accept = 122474
rejected = 28179
matrix size = 30
fillins = 9
solver = Normal
Matrix Compiler1: 1.72 KB object code size  2.4/0.9/[0.6]
Matrix Compiler2: off  [0.7]/1.0/1.5


